/*--------------------------------*- C++ -*----------------------------------*\
| =========                 |                                                 |
| \\      /  F ield         | OpenFOAM: The Open Source CFD Toolbox           |
|  \\    /   O peration     | Version:  4.1                                   |
|   \\  /    A nd           | Web:      www.OpenFOAM.org                      |
|    \\/     M anipulation  |                                                 |
\*---------------------------------------------------------------------------*/
FoamFile
{
    version     2.0;
    format      binary;
    class       polyBoundaryMesh;
    location    "3/polyMesh";
    object      boundary;
}
// * * * * * * * * * * * * * * * * * * * * * * * * * * * * * * * * * * * * * //

7
(
    atmosphere
    {
        type            patch;
        nFaces          6664;
        startFace       816735;
    }
    outlet
    {
        type            patch;
        nFaces          590;
        startFace       823399;
    }
    inlet
    {
        type            patch;
        nFaces          590;
        startFace       823989;
    }
    bottom
    {
        type            patch;
        nFaces          1500;
        startFace       824579;
    }
    midPlane
    {
        type            symmetryPlane;
        inGroups        1(symmetryPlane);
        nFaces          8953;
        startFace       826079;
    }
    side
    {
        type            patch;
        nFaces          8850;
        startFace       835032;
    }
    hull
    {
        type            wall;
        inGroups        1(wall);
        nFaces          2094;
        startFace       843882;
    }
)

// ************************************************************************* //
