/*--------------------------------*- C++ -*----------------------------------*\
| =========                 |                                                 |
| \\      /  F ield         | OpenFOAM: The Open Source CFD Toolbox           |
|  \\    /   O peration     | Version:  4.1                                   |
|   \\  /    A nd           | Web:      www.OpenFOAM.org                      |
|    \\/     M anipulation  |                                                 |
\*---------------------------------------------------------------------------*/
FoamFile
{
    version     2.0;
    format      ascii;
    class       dictionary;
    location    "system";
    object      controlDict;
}
// * * * * * * * * * * * * * * * * * * * * * * * * * * * * * * * * * * * * * //

application     icoFoam;

startFrom       startTime;

startTime       0;

stopAt          endTime;

endTime         100;

deltaT          0.025;

writeControl    timeStep;

writeInterval   20;

purgeWrite      0;

writeFormat     ascii;

writePrecision  6;

writeCompression off;

timeFormat      general;

timePrecision   6;

runTimeModifiable true;

functions{
forceCoeffs1
{
    // Mandatory entries
    type            forceCoeffs;
    libs            ("libforces.so");
    patches         (cylinder);

    // Optional entries

    // Field names
    p               p;
    U               U;
//    rho             rho;

    rho         rhoInf;
    rhoInf      100000;

    // Reference pressure [Pa]
    pRef            0;

    // Include porosity effects?
    porosity        no;

    // Store and write volume field representations of forces and moments
    writeFields     yes;

    // Centre of rotation for moment calculations
    CofR            (0 0 0);

    // Lift direction
    liftDir         (0 0 1);

    // Drag direction
    dragDir         (1 0 0);

    // Pitch axis
    pitchAxis       (0 1 0);

    // Freestream velocity magnitude [m/s]
    magUInf         30;

    // Reference length [m]
    lRef            1;

    // Reference area [m2]
    Aref            1.75;

    // Spatial data binning
    // - extents given by the bounds of the input geometry
    binData
    {
        nBin        20;
        direction   (1 0 0);
        cumulative  yes;
    }
}
}
// ************************************************************************* //
