/*--------------------------------*- C++ -*----------------------------------*\
| =========                 |                                                 |
| \\      /  F ield         | OpenFOAM: The Open Source CFD Toolbox           |
|  \\    /   O peration     | Version:  4.1                                   |
|   \\  /    A nd           | Web:      www.OpenFOAM.org                      |
|    \\/     M anipulation  |                                                 |
\*---------------------------------------------------------------------------*/
FoamFile
{
    version     2.0;
    format      ascii;
    class       polyBoundaryMesh;
    location    "constant/polyMesh";
    object      boundary;
}
// * * * * * * * * * * * * * * * * * * * * * * * * * * * * * * * * * * * * * //

6
(
    bottom
    {
        type            symmetryPlane;
        inGroups        1(symmetryPlane);
        nFaces          120;
        startFace       7430;
    }
    right
    {
        type            patch;
        nFaces          30;
        startFace       7550;
    }
    top
    {
        type            symmetryPlane;
        inGroups        1(symmetryPlane);
        nFaces          120;
        startFace       7580;
    }
    left
    {
        type            patch;
        nFaces          30;
        startFace       7700;
    }
    cylinder
    {
        type            patch;
        nFaces          40;
        startFace       7730;
    }
    defaultFaces
    {
        type            empty;
        inGroups        1(empty);
        nFaces          7600;
        startFace       7770;
    }
)

// ************************************************************************* //
