/*--------------------------------*- C++ -*----------------------------------*\
| =========                 |                                                 |
| \\      /  F ield         | OpenFOAM: The Open Source CFD Toolbox           |
|  \\    /   O peration     | Version:  4.1                                   |
|   \\  /    A nd           | Web:      www.OpenFOAM.org                      |
|    \\/     M anipulation  |                                                 |
\*---------------------------------------------------------------------------*/
FoamFile
{
    version     2.0;
    format      ascii;
    class       dictionary;
    object      blockMeshDict;
}


convertToMeters 1;

a 120;       // Number of elements in x direction
b  40;       // Number of elements in y direction
c   1;       // Number of elements in z direction
xi  -4;      // Minimum x coordinate   
xf  10;      // Maximum x coordinate
yi -2;      // Minimum y coordinate
yf  2;      // Maximum y coordinate
zi -1;      // Minimum z coordinate
zf  1;      // Maximum z coordinate


vertices
(
    ($xi $yi $zi) //0
    ($xf $yi $zi) //1
    ($xf $yf $zi) //2
    ($xi $yf $zi) //3
    ($xi $yi $zf) //4
    ($xf $yi $zf) //5
    ($xf $yf $zf) //6
    ($xi $yf $zf) //7
);


blocks
(
    hex (0 1 2 3 4 5 6 7) ($a $b $c) simpleGrading (1 1 1)
);

edges
(
);

boundary
(
    top
    {
        type wall;
        faces
        (
            (3 7 6 2)
        );
    }
    left
    {
        type wall;
        faces
        (
            (0 4 7 3)
        );
    }    
    right
    {
        type wall;
        faces
        (
            (2 6 5 1)
        );
    }    
    bottom
    {
        type wall;
        faces
        (
            (1 5 4 0)
        );
    }
    back
    {
        type empty;
        faces
        (
            (0 3 2 1)
        );
    }
    front
    {
        type empty;
        faces
        (
            (4 5 6 7)
        );
    }
);


mergePatchPairs
(
);